REMARK  Name = 
REMARK  7 active torsions:
REMARK  status: ('A' for Active; 'I' for Inactive)
REMARK    1  A    between atoms: C_1  and  N_2
REMARK    2  A    between atoms: C_4  and  C_5
REMARK    3  A    between atoms: N_7  and  C_8
REMARK    4  A    between atoms: C_13  and  C_14
REMARK    5  A    between atoms: N_16  and  C_17
REMARK    6  A    between atoms: C_17  and  C_18
REMARK    7  A    between atoms: C_18  and  C_19
REMARK                            x       y       z     vdW  Elec       q    Type
REMARK                         _______ _______ _______ _____ _____    ______ ____
ROOT
ATOM      1  C   UNL     1       5.304  -4.864  -0.324  0.00  0.00    +0.000 A 
ATOM      2  C   UNL     1       4.964  -5.797  -1.319  0.00  0.00    +0.000 A 
ATOM      3  C   UNL     1       5.716  -6.958  -1.511  0.00  0.00    +0.000 A 
ATOM      4  C   UNL     1       6.798  -7.227  -0.684  0.00  0.00    +0.000 A 
ATOM      5  C   UNL     1       7.150  -6.313   0.308  0.00  0.00    +0.000 A 
ATOM      6  C   UNL     1       6.441  -5.106   0.470  0.00  0.00    +0.000 A 
ENDROOT
BRANCH   1   9
ATOM      7  C   UNL     1       3.123  -3.696  -0.249  0.00  0.00    +0.000 C 
ATOM      8  O   UNL     1       2.420  -4.704  -0.275  0.00  0.00    +0.000 OA
ATOM      9  N   UNL     1       4.501  -3.711  -0.173  0.00  0.00    +0.000 N 
ATOM     10  H   UNL     1       4.926  -2.863   0.189  0.00  0.00    +0.000 HD
BRANCH   7  14
ATOM     11  C   UNL     1      -1.017  -0.972  -0.184  0.00  0.00    +0.000 C 
ATOM     12  N   UNL     1       0.432  -1.046  -0.150  0.00  0.00    +0.000 N 
ATOM     13  C   UNL     1       1.164  -2.228  -0.154  0.00  0.00    +0.000 A 
ATOM     14  C   UNL     1       2.506  -2.337  -0.237  0.00  0.00    +0.000 A 
ATOM     15  C   UNL     1       3.277  -1.060  -0.350  0.00  0.00    +0.000 A 
ATOM     16  O   UNL     1       4.503  -1.082  -0.446  0.00  0.00    +0.000 OA
ATOM     17  C   UNL     1       2.511   0.167  -0.337  0.00  0.00    +0.000 A 
ATOM     18  C   UNL     1       2.930   1.482  -0.348  0.00  0.00    +0.000 A 
ATOM     19  C   UNL     1       1.767   2.290  -0.288  0.00  0.00    +0.000 A 
ATOM     20  C   UNL     1       0.682   1.442  -0.225  0.00  0.00    +0.000 A 
ATOM     21  N   UNL     1       1.142   0.148  -0.255  0.00  0.00    +0.000 N 
ENDBRANCH   7  14
ENDBRANCH   1   9
BRANCH   6  22
ATOM     22  C   UNL     1       6.878  -4.257   1.614  0.00  0.00    +0.000 C 
ATOM     23  O   UNL     1       7.319  -4.788   2.625  0.00  0.00    +0.000 OA
ATOM     24  N   UNL     1       6.777  -2.887   1.474  0.00  0.00    +0.000 N 
ATOM     25  H   UNL     1       6.694  -2.481   0.551  0.00  0.00    +0.000 HD
BRANCH  24  26
ATOM     26  C   UNL     1       7.145  -2.001   2.571  0.00  0.00    +0.000 C 
BRANCH  26  27
ATOM     27  C   UNL     1       6.253  -0.756   2.664  0.00  0.00    +0.000 C 
BRANCH  27  28
ATOM     28  C   UNL     1       4.774  -0.974   2.915  0.00  0.00    +0.000 A 
ATOM     29  C   UNL     1       4.205  -2.236   3.134  0.00  0.00    +0.000 A 
ATOM     30  C   UNL     1       2.823  -2.391   3.257  0.00  0.00    +0.000 A 
ATOM     31  C   UNL     1       1.989  -1.281   3.198  0.00  0.00    +0.000 A 
ATOM     32  C   UNL     1       2.539  -0.012   3.035  0.00  0.00    +0.000 A 
ATOM     33  C   UNL     1       3.921   0.141   2.896  0.00  0.00    +0.000 A 
ENDBRANCH  27  28
ENDBRANCH  26  27
ENDBRANCH  24  26
ENDBRANCH   6  22
TORSDOF 6
