MODEL 1
REMARK VINA RESULT:      -7.6      0.000      0.000
REMARK  Name = 
REMARK  7 active torsions:
REMARK  status: ('A' for Active; 'I' for Inactive)
REMARK    1  A    between atoms: C_1  and  N_2
REMARK    2  A    between atoms: C_4  and  C_5
REMARK    3  A    between atoms: N_7  and  C_8
REMARK    4  A    between atoms: C_13  and  C_14
REMARK    5  A    between atoms: N_16  and  C_17
REMARK    6  A    between atoms: C_17  and  C_18
REMARK    7  A    between atoms: C_18  and  C_19
REMARK                            x       y       z     vdW  Elec       q    Type
REMARK                         _______ _______ _______ _____ _____    ______ ____
ROOT
ATOM      1  C   UNL     1     -35.046  20.094   7.250  0.00  0.00    +0.000 A 
ATOM      2  C   UNL     1     -35.553  21.331   6.818  0.00  0.00    +0.000 A 
ATOM      3  C   UNL     1     -35.570  21.674   5.464  0.00  0.00    +0.000 A 
ATOM      4  C   UNL     1     -35.117  20.769   4.514  0.00  0.00    +0.000 A 
ATOM      5  C   UNL     1     -34.610  19.537   4.925  0.00  0.00    +0.000 A 
ATOM      6  C   UNL     1     -34.526  19.204   6.292  0.00  0.00    +0.000 A 
ENDROOT
BRANCH   1   9
ATOM      7  C   UNL     1     -36.179  19.407   9.341  0.00  0.00    +0.000 C 
ATOM      8  O   UNL     1     -37.249  19.089   8.826  0.00  0.00    +0.000 OA
ATOM      9  N   UNL     1     -35.062  19.801   8.633  0.00  0.00    +0.000 N 
ATOM     10  H   UNL     1     -34.178  19.694   9.120  0.00  0.00    +0.000 HD
BRANCH   7  14
ATOM     11  C   UNL     1     -38.103  20.114  13.853  0.00  0.00    +0.000 C 
ATOM     12  N   UNL     1     -37.013  19.646  13.018  0.00  0.00    +0.000 N 
ATOM     13  C   UNL     1     -37.024  19.648  11.628  0.00  0.00    +0.000 A 
ATOM     14  C   UNL     1     -35.992  19.328  10.820  0.00  0.00    +0.000 A 
ATOM     15  C   UNL     1     -34.709  18.950  11.488  0.00  0.00    +0.000 A 
ATOM     16  O   UNL     1     -33.720  18.662  10.815  0.00  0.00    +0.000 OA
ATOM     17  C   UNL     1     -34.705  18.941  12.935  0.00  0.00    +0.000 A 
ATOM     18  C   UNL     1     -33.717  18.570  13.824  0.00  0.00    +0.000 A 
ATOM     19  C   UNL     1     -34.251  18.721  15.128  0.00  0.00    +0.000 A 
ATOM     20  C   UNL     1     -35.550  19.162  14.989  0.00  0.00    +0.000 A 
ATOM     21  N   UNL     1     -35.822  19.294  13.649  0.00  0.00    +0.000 N 
ENDBRANCH   7  14
ENDBRANCH   1   9
BRANCH   6  22
ATOM     22  C   UNL     1     -34.033  17.828   6.585  0.00  0.00    +0.000 C 
ATOM     23  O   UNL     1     -34.625  17.137   7.404  0.00  0.00    +0.000 OA
ATOM     24  N   UNL     1     -32.921  17.383   5.898  0.00  0.00    +0.000 N 
ATOM     25  H   UNL     1     -32.642  17.844   5.042  0.00  0.00    +0.000 HD
BRANCH  24  26
ATOM     26  C   UNL     1     -32.361  16.065   6.169  0.00  0.00    +0.000 C 
BRANCH  26  27
ATOM     27  C   UNL     1     -32.701  15.032   5.086  0.00  0.00    +0.000 C 
BRANCH  27  28
ATOM     28  C   UNL     1     -33.105  15.557   3.723  0.00  0.00    +0.000 A 
ATOM     29  C   UNL     1     -32.192  15.805   2.689  0.00  0.00    +0.000 A 
ATOM     30  C   UNL     1     -32.604  16.386   1.488  0.00  0.00    +0.000 A 
ATOM     31  C   UNL     1     -33.944  16.697   1.288  0.00  0.00    +0.000 A 
ATOM     32  C   UNL     1     -34.875  16.410   2.283  0.00  0.00    +0.000 A 
ATOM     33  C   UNL     1     -34.460  15.843   3.490  0.00  0.00    +0.000 A 
ENDBRANCH  27  28
ENDBRANCH  26  27
ENDBRANCH  24  26
ENDBRANCH   6  22
TORSDOF 6
ENDMDL
