REMARK  Name = 
REMARK  13 active torsions:
REMARK  status: ('A' for Active; 'I' for Inactive)
REMARK    1  A    between atoms: C_1  and  N_2
REMARK    2  A    between atoms: C_4  and  C_5
REMARK    3  A    between atoms: N_7  and  C_8
REMARK    4  A    between atoms: N_7  and  C_20
REMARK    5  A    between atoms: C_8  and  C_9
REMARK    6  A    between atoms: C_9  and  O_10
REMARK    7  A    between atoms: O_10  and  C_11
REMARK    8  A    between atoms: C_15  and  C_18
REMARK    9  A    between atoms: C_18  and  C_19
REMARK   10  A    between atoms: C_25  and  C_26
REMARK   11  A    between atoms: N_28  and  C_29
REMARK   12  A    between atoms: C_29  and  C_30
REMARK   13  A    between atoms: C_30  and  C_31
REMARK                            x       y       z     vdW  Elec       q    Type
REMARK                         _______ _______ _______ _____ _____    ______ ____
ROOT
ATOM      1  C   UNL     1       5.212  -2.525  -0.927  0.00  0.00    +0.000 C 
ATOM      2  O   UNL     1       4.548  -1.537  -1.240  0.00  0.00    +0.000 OA
ATOM      3  N   UNL     1       4.537  -3.714  -0.471  0.00  0.00    +0.000 N 
ENDROOT
BRANCH   1   7
ATOM      4  C   UNL     1       9.774  -4.639  -1.089  0.00  0.00    +0.000 C 
ATOM      5  N   UNL     1       8.983  -3.422  -0.906  0.00  0.00    +0.000 N 
ATOM      6  C   UNL     1       7.599  -3.387  -0.908  0.00  0.00    +0.000 A 
ATOM      7  C   UNL     1       6.739  -2.369  -0.981  0.00  0.00    +0.000 A 
ATOM      8  C   UNL     1       7.471  -1.040  -1.232  0.00  0.00    +0.000 A 
ATOM      9  O   UNL     1       6.849  -0.001  -1.446  0.00  0.00    +0.000 OA
ATOM     10  C   UNL     1       8.944  -1.053  -1.174  0.00  0.00    +0.000 A 
ATOM     11  C   UNL     1       9.897  -0.053  -1.293  0.00  0.00    +0.000 A 
ATOM     12  C   UNL     1      11.166  -0.624  -1.009  0.00  0.00    +0.000 A 
ATOM     13  C   UNL     1      10.960  -1.967  -0.767  0.00  0.00    +0.000 A 
ATOM     14  N   UNL     1       9.635  -2.222  -0.967  0.00  0.00    +0.000 N 
ENDBRANCH   1   7
BRANCH   3  15
ATOM     15  C   UNL     1       5.186  -4.994  -0.456  0.00  0.00    +0.000 A 
ATOM     16  C   UNL     1       5.287  -5.654  -1.705  0.00  0.00    +0.000 A 
ATOM     17  C   UNL     1       6.101  -6.778  -1.867  0.00  0.00    +0.000 A 
ATOM     18  C   UNL     1       6.802  -7.286  -0.781  0.00  0.00    +0.000 A 
ATOM     19  C   UNL     1       6.684  -6.673   0.469  0.00  0.00    +0.000 A 
ATOM     20  C   UNL     1       5.889  -5.516   0.660  0.00  0.00    +0.000 A 
BRANCH  20  21
ATOM     21  C   UNL     1       6.047  -4.872   2.004  0.00  0.00    +0.000 C 
ATOM     22  O   UNL     1       6.766  -5.403   2.848  0.00  0.00    +0.000 OA
ATOM     23  N   UNL     1       5.402  -3.687   2.248  0.00  0.00    +0.000 N 
ATOM     24  H   UNL     1       4.835  -3.259   1.527  0.00  0.00    +0.000 HD
BRANCH  23  25
ATOM     25  C   UNL     1       5.465  -3.049   3.552  0.00  0.00    +0.000 C 
BRANCH  25  26
ATOM     26  C   UNL     1       4.158  -2.339   3.915  0.00  0.00    +0.000 C 
BRANCH  26  27
ATOM     27  C   UNL     1       2.914  -3.198   3.829  0.00  0.00    +0.000 A 
ATOM     28  C   UNL     1       2.909  -4.551   4.196  0.00  0.00    +0.000 A 
ATOM     29  C   UNL     1       1.751  -5.319   4.069  0.00  0.00    +0.000 A 
ATOM     30  C   UNL     1       0.577  -4.738   3.597  0.00  0.00    +0.000 A 
ATOM     31  C   UNL     1       0.557  -3.387   3.265  0.00  0.00    +0.000 A 
ATOM     32  C   UNL     1       1.715  -2.619   3.388  0.00  0.00    +0.000 A 
ENDBRANCH  26  27
ENDBRANCH  25  26
ENDBRANCH  23  25
ENDBRANCH  20  21
ENDBRANCH   3  15
BRANCH   3  33
ATOM     33  C   UNL     1       3.020  -3.879  -0.606  0.00  0.00    +0.000 C 
BRANCH  33  34
ATOM     34  C   UNL     1       2.164  -2.613  -0.422  0.00  0.00    +0.000 C 
BRANCH  34  35
ATOM     35  O   UNL     1       0.698  -2.738  -0.433  0.00  0.00    +0.000 OA
BRANCH  35  36
ATOM     36  C   UNL     1       0.086  -1.516  -0.203  0.00  0.00    +0.000 C 
ATOM     37  C   UNL     1      -1.369  -1.665  -0.220  0.00  0.00    +0.000 C 
ATOM     38  C   UNL     1      -2.231  -0.647  -0.139  0.00  0.00    +0.000 C 
ATOM     39  C   UNL     1      -1.901   0.750  -0.031  0.00  0.00    +0.000 C 
ATOM     40  C   UNL     1      -0.711   1.326   0.204  0.00  0.00    +0.000 C 
ATOM     41  O   UNL     1       0.473   0.716   0.532  0.00  0.00    +0.000 OA
ATOM     42  N   UNL     1       0.834  -0.507   0.017  0.00  0.00    +0.000 NA
BRANCH  40  43
ATOM     43  C   UNL     1      -0.594   2.839   0.285  0.00  0.00    +0.000 C 
ATOM     44  C   UNL     1       0.065   3.342   1.571  0.00  0.00    +0.000 C 
ENDBRANCH  40  43
ENDBRANCH  35  36
ENDBRANCH  34  35
ENDBRANCH  33  34
ENDBRANCH   3  33
TORSDOF 11
